Version 4
SHEET 1 880 680
WIRE 80 -48 -48 -48
WIRE 320 -48 160 -48
WIRE -80 128 -256 128
WIRE -48 128 -48 -48
WIRE -48 128 -80 128
WIRE 80 128 -48 128
WIRE 320 144 320 -48
WIRE 320 144 144 144
WIRE 368 144 320 144
WIRE 48 160 32 160
WIRE 80 160 48 160
WIRE -48 224 -48 128
WIRE 32 240 32 160
WIRE 208 240 32 240
WIRE 320 256 320 224
WIRE 208 304 208 240
WIRE 320 368 320 352
WIRE -48 448 -48 288
WIRE 320 448 -48 448
WIRE 320 480 320 448
FLAG 480 176 0
FLAG 592 176 0
FLAG -256 208 0
FLAG 368 144 Vout
FLAG 480 96 +VCC
FLAG 112 112 +VCC
FLAG 592 96 -VCC
FLAG 112 176 -VCC
FLAG 48 160 Vref
FLAG 320 480 0
FLAG -80 128 in
SYMBOL OpAmps\\LT1001 112 80 R0
SYMATTR InstName U1
SYMBOL res 304 128 R0
SYMATTR InstName R1
SYMATTR Value 100
SYMBOL res 304 352 R0
SYMATTR InstName R2
SYMATTR Value 35
SYMBOL res 176 -64 R90
WINDOW 0 0 56 VBottom 2
WINDOW 3 32 56 VTop 2
SYMATTR InstName R3
SYMATTR Value 50k
SYMBOL voltage -256 112 R0
WINDOW 123 0 0 Left 0
WINDOW 39 0 0 Left 0
SYMATTR InstName V1
SYMATTR Value SINE(0 2 1k)
SYMBOL voltage 480 80 R0
SYMATTR InstName V2
SYMATTR Value 2
SYMBOL voltage 592 80 R0
SYMATTR InstName V3
SYMATTR Value -2
SYMBOL cap -64 224 R0
SYMATTR InstName C1
SYMATTR Value 0.01µ
SYMBOL pot 304 256 R0
WINDOW 39 52 23 Left 0
SYMATTR SpiceLine R= 5k val=70
SYMATTR InstName X1
TEXT -288 360 Left 2 !.tran 10m
