Version 4
SHEET 1 928 680
WIRE 208 -96 80 -96
WIRE 400 -96 288 -96
WIRE -96 0 -288 0
WIRE 0 0 -96 0
WIRE 80 0 80 -96
WIRE 80 0 0 0
WIRE 96 0 80 0
WIRE 400 0 400 -96
WIRE 400 0 384 0
WIRE 0 16 0 0
WIRE -288 48 -288 0
WIRE 624 96 384 96
WIRE 736 96 624 96
WIRE 816 96 736 96
WIRE 0 112 0 80
WIRE 736 112 736 96
WIRE 816 112 816 96
WIRE -416 160 -560 160
WIRE -352 160 -416 160
WIRE -288 160 -288 128
WIRE -288 160 -352 160
WIRE -560 176 -560 160
WIRE -416 176 -416 160
WIRE -288 176 -288 160
WIRE 0 192 -16 192
WIRE 96 192 80 192
WIRE 624 192 624 176
WIRE 624 192 384 192
WIRE 624 208 624 192
WIRE 736 208 736 176
WIRE 816 208 816 192
WIRE -560 288 -560 256
WIRE -416 288 -416 256
WIRE -416 288 -560 288
WIRE -288 288 -288 256
WIRE -288 288 -416 288
WIRE 448 288 384 288
WIRE 624 304 624 288
WIRE -560 320 -560 288
WIRE 16 384 0 384
WIRE 96 384 80 384
WIRE 400 384 384 384
WIRE 240 448 240 432
FLAG 240 448 0
FLAG 624 304 0
FLAG 736 208 0
FLAG 816 208 0
FLAG 400 384 0
FLAG 0 384 0
FLAG -16 192 0
FLAG 816 96 OUT
FLAG -96 0 IN
FLAG 0 112 0
FLAG -560 320 0
FLAG -352 160 d
SYMBOL PowerProducts\\LTC3105 240 192 R0
SYMATTR InstName U1
SYMBOL ind 192 -80 R270
WINDOW 0 32 56 VTop 2
WINDOW 3 5 56 VBottom 2
SYMATTR InstName L1
SYMATTR Value 10µ
SYMBOL res 608 80 R0
SYMATTR InstName R1
SYMATTR Value 1meg
SYMBOL res 608 192 R0
SYMATTR InstName R2
SYMATTR Value 250k
SYMBOL cap 720 112 R0
SYMATTR InstName C1
SYMATTR Value 10µ
SYMBOL cap 80 368 R90
WINDOW 0 0 32 VBottom 2
WINDOW 3 32 32 VTop 2
SYMATTR InstName C3
SYMATTR Value 1µ
SYMBOL res 96 176 R90
WINDOW 0 0 56 VBottom 2
WINDOW 3 32 56 VTop 2
SYMATTR InstName R5
SYMATTR Value 40.2K
SYMBOL cap -16 16 R0
SYMATTR InstName C2
SYMATTR Value 10µ
SYMBOL res 800 96 R0
SYMATTR InstName RLoad
SYMATTR Value 250k
SYMBOL res -304 32 R0
SYMATTR InstName RS
SYMATTR Value .5
SYMBOL bi -288 176 R0
SYMATTR InstName B1
SYMATTR Value I=10n*(exp(V(d)/1.2/.0259)-1)
SYMBOL res -576 160 R0
SYMATTR InstName Rshunt
SYMATTR Value 50k
SYMBOL current -416 176 R0
WINDOW 123 0 0 Left 2
WINDOW 39 0 0 Left 2
SYMATTR InstName I1
SYMATTR Value -400m
TEXT 672 392 Left 2 !.tran 20m startup
