Version 4
SHEET 1 880 680
WIRE 288 48 240 48
WIRE 416 48 352 48
WIRE 416 112 416 48
WIRE 144 160 112 160
WIRE 240 160 240 48
WIRE 240 160 224 160
WIRE 272 160 240 160
WIRE 416 176 416 112
WIRE 416 176 336 176
WIRE 240 192 224 192
WIRE 272 192 240 192
WIRE 112 208 112 160
WIRE 224 224 224 192
FLAG -64 208 0
FLAG 16 208 0
FLAG 112 288 0
FLAG -64 128 +
FLAG 304 144 +
FLAG 16 128 -
FLAG 304 208 -
FLAG 416 112 out
FLAG 240 192 IN
FLAG 224 224 0
SYMBOL Opamps\\LT1006 304 112 R0
SYMATTR InstName U1
SYMBOL voltage -64 112 R0
WINDOW 123 0 0 Left 0
WINDOW 39 0 0 Left 0
SYMATTR InstName V1
SYMATTR Value 5
SYMBOL voltage 16 112 R0
WINDOW 123 0 0 Left 0
WINDOW 39 0 0 Left 0
SYMATTR InstName V2
SYMATTR Value -5
SYMBOL voltage 112 192 R0
WINDOW 123 0 0 Left 0
WINDOW 39 0 0 Left 0
SYMATTR InstName V3
SYMATTR Value 1
SYMBOL res 240 144 R90
WINDOW 0 0 56 VBottom 2
WINDOW 3 32 56 VTop 2
SYMATTR InstName R1
SYMATTR Value 10k
SYMBOL diode 288 64 R270
WINDOW 0 32 32 VTop 2
WINDOW 3 0 32 VBottom 2
SYMATTR InstName D1
SYMATTR Value 1N4148
TEXT -98 296 Left 2 !.dc V3 1 5 0.1
