Version 4
SHEET 1 880 680
WIRE 16 -144 -64 -144
WIRE 80 -144 16 -144
WIRE -400 -128 -400 -160
WIRE 80 -128 80 -144
WIRE 80 -16 80 -64
WIRE -64 16 -64 -64
WIRE 80 16 80 -16
WIRE -400 32 -400 -48
WIRE 80 160 80 96
FLAG 80 160 0
FLAG -64 16 0
FLAG 16 -144 IN
FLAG 80 -16 OUT
FLAG -400 32 0
FLAG -400 -160 Check
SYMBOL res 64 0 R0
SYMATTR InstName R2
SYMATTR Value {R2}
SYMBOL voltage -64 -160 R0
WINDOW 123 8 134 Left 2
WINDOW 39 0 0 Left 0
WINDOW 3 4 106 Left 2
SYMATTR Value2 AC 1
SYMATTR InstName V1
SYMATTR Value SINE(0 1 1k)
SYMBOL bv -400 -144 R0
SYMATTR InstName B1
SYMATTR Value V={R2}*10/(10k+{R2})
SYMBOL cap 64 -128 R0
SYMATTR InstName C1
SYMATTR Value 10µ
TEXT -72 56 Left 2 !;op
TEXT -88 216 Left 2 !.step param R2 list 10k 20k
TEXT -256 -192 Left 2 !;ac dec 10 1 1k
TEXT -256 -160 Left 2 !.tran 2m
