Version 4
SHEET 1 880 680
WIRE 288 -80 144 -80
WIRE 144 -32 144 -80
WIRE 288 96 288 -80
WIRE 16 128 -32 128
WIRE 128 128 96 128
WIRE 144 128 144 48
WIRE 144 128 128 128
WIRE 176 128 144 128
WIRE 288 144 288 96
WIRE 288 144 240 144
WIRE 176 160 128 160
WIRE 128 192 128 160
WIRE 128 288 128 272
FLAG 128 288 0
FLAG -32 128 0
FLAG 128 128 IN
FLAG 288 96 OUT
FLAG 416 208 0
FLAG 528 208 0
FLAG 528 128 V+
FLAG 208 112 V+
FLAG 416 128 V-
FLAG 208 176 V-
SYMBOL Opamps\\LT1001 208 80 R0
SYMATTR InstName U1
SYMBOL res 160 64 R180
WINDOW 0 36 76 Left 2
WINDOW 3 36 40 Left 2
SYMATTR InstName R1
SYMATTR Value 9k
SYMBOL res 0 144 R270
WINDOW 0 32 56 VTop 2
WINDOW 3 0 56 VBottom 2
SYMATTR InstName R2
SYMATTR Value 9k
SYMBOL voltage 528 112 R0
WINDOW 123 24 124 Left 2
WINDOW 39 0 0 Left 0
SYMATTR InstName V1
SYMATTR Value 15
SYMBOL voltage 416 112 R0
WINDOW 3 28 94 Left 2
WINDOW 123 0 0 Left 0
WINDOW 39 0 0 Left 0
SYMATTR InstName V2
SYMATTR Value -15
SYMBOL voltage 128 176 R0
WINDOW 123 0 0 Left 0
WINDOW 39 0 0 Left 0
SYMATTR InstName V3
SYMATTR Value 1
TEXT -232 16 Left 2 !.op
