Version 4
SHEET 1 920 680
WIRE 160 -160 16 -160
WIRE 384 -160 240 -160
WIRE -80 0 -112 0
WIRE 16 0 16 -160
WIRE 16 0 -80 0
WIRE 48 0 16 0
WIRE 384 0 384 -160
WIRE 384 0 336 0
WIRE -112 16 -112 0
WIRE 592 96 336 96
WIRE 736 96 592 96
WIRE 880 96 736 96
WIRE -112 112 -112 96
WIRE 592 112 592 96
WIRE 880 112 880 96
WIRE 736 176 736 96
WIRE -80 192 -144 192
WIRE 48 192 0 192
WIRE 592 192 336 192
WIRE 592 224 592 192
WIRE 880 240 880 192
WIRE 400 288 336 288
WIRE 480 288 400 288
WIRE 736 288 736 240
WIRE 480 304 480 288
WIRE 400 320 400 288
WIRE 592 336 592 304
WIRE -64 384 -128 384
WIRE 48 384 0 384
WIRE 352 384 336 384
WIRE 400 432 400 384
WIRE 480 432 480 384
WIRE 192 464 192 432
FLAG 400 432 0
FLAG 480 432 0
FLAG 352 384 0
FLAG -128 384 0
FLAG -144 192 0
FLAG 592 336 0
FLAG 736 288 0
FLAG 880 240 0
FLAG 880 96 OUT
FLAG 192 464 0
FLAG -112 112 0
FLAG -80 0 IN
SYMBOL PowerProducts\\LTC3105 192 192 R0
SYMATTR InstName U1
SYMBOL res 16 176 R90
WINDOW 0 0 56 VBottom 2
WINDOW 3 32 56 VTop 2
SYMATTR InstName R5
SYMATTR Value 40.2K
SYMBOL res 608 208 R180
WINDOW 0 36 76 Left 2
WINDOW 3 36 40 Left 2
SYMATTR InstName R1
SYMATTR Value 1020K
SYMBOL res 608 320 R180
WINDOW 0 36 76 Left 2
WINDOW 3 36 40 Left 2
SYMATTR InstName R2
SYMATTR Value 332K
SYMBOL res 896 208 R180
WINDOW 0 36 76 Left 2
WINDOW 3 36 40 Left 2
SYMATTR InstName R3
SYMATTR Value 500
SYMBOL res 464 288 R0
SYMATTR InstName R4
SYMATTR Value 350
SYMBOL cap 0 368 R90
WINDOW 0 0 32 VBottom 2
WINDOW 3 32 32 VTop 2
SYMATTR InstName C3
SYMATTR Value 1µ
SYMBOL ind 144 -144 R270
WINDOW 0 32 56 VTop 2
WINDOW 3 5 56 VBottom 2
SYMATTR InstName L1
SYMATTR Value 10µ
SYMBOL cap 720 176 R0
SYMATTR InstName C1
SYMATTR Value 10µ
SYMBOL cap 384 320 R0
SYMATTR InstName C2
SYMATTR Value 4.7µ
SYMBOL voltage -112 0 R0
WINDOW 123 0 0 Left 0
WINDOW 39 0 0 Left 0
SYMATTR InstName V1
SYMATTR Value 0.5
TEXT -368 488 Left 2 !.tran 5m startup
