Version 4
SHEET 1 920 680
WIRE 160 -160 16 -160
WIRE 384 -160 240 -160
WIRE -1088 0 -1280 0
WIRE -1008 0 -1088 0
WIRE -928 0 -1008 0
WIRE -752 0 -928 0
WIRE -336 0 -672 0
WIRE -128 0 -336 0
WIRE 16 0 16 -160
WIRE 16 0 -128 0
WIRE 48 0 16 0
WIRE 384 0 384 -160
WIRE 384 0 336 0
WIRE -336 64 -336 0
WIRE 592 96 336 96
WIRE 736 96 592 96
WIRE 880 96 736 96
WIRE -1280 112 -1280 0
WIRE -1088 112 -1088 0
WIRE -928 112 -928 0
WIRE 592 112 592 96
WIRE 880 112 880 96
WIRE -336 176 -336 128
WIRE 736 176 736 96
WIRE -80 192 -144 192
WIRE 48 192 0 192
WIRE 592 192 336 192
WIRE 592 224 592 192
WIRE 880 240 880 192
WIRE -1280 256 -1280 192
WIRE -1088 256 -1088 192
WIRE -928 256 -928 192
WIRE 400 288 336 288
WIRE 480 288 400 288
WIRE 736 288 736 240
WIRE 400 320 400 288
WIRE 592 336 592 304
WIRE -64 384 -128 384
WIRE 48 384 0 384
WIRE 352 384 336 384
WIRE 400 432 400 384
WIRE 192 464 192 432
FLAG 400 432 0
FLAG 352 384 0
FLAG -128 384 0
FLAG -144 192 0
FLAG 592 336 0
FLAG 736 288 0
FLAG 880 240 0
FLAG 880 96 OUT
FLAG 192 464 0
FLAG -1280 256 0
FLAG -1088 256 0
FLAG -928 256 0
FLAG -336 176 0
FLAG -1008 0 d2
FLAG -128 0 IN
FLAG -944 -144 0
FLAG -944 -224 X
FLAG 480 288 X
SYMBOL PowerProducts\\LTC3105 192 192 R0
SYMATTR InstName U1
SYMBOL res 16 176 R90
WINDOW 0 0 56 VBottom 2
WINDOW 3 32 56 VTop 2
SYMATTR InstName R1
SYMATTR Value 40.2K
SYMBOL res 608 208 R180
WINDOW 0 36 76 Left 2
WINDOW 3 36 40 Left 2
SYMATTR InstName R2
SYMATTR Value 1020K
SYMBOL res 608 320 R180
WINDOW 0 36 76 Left 2
WINDOW 3 36 40 Left 2
SYMATTR InstName R3
SYMATTR Value 332K
SYMBOL res 896 208 R180
WINDOW 0 36 76 Left 2
WINDOW 3 36 40 Left 2
SYMATTR InstName R4
SYMATTR Value 500
SYMBOL cap 0 368 R90
WINDOW 0 0 32 VBottom 2
WINDOW 3 32 32 VTop 2
SYMATTR InstName C2
SYMATTR Value 1µ
SYMBOL ind 144 -144 R270
WINDOW 0 32 56 VTop 2
WINDOW 3 5 56 VBottom 2
SYMATTR InstName L1
SYMATTR Value 10µ
SYMBOL cap 720 176 R0
SYMATTR InstName C3
SYMATTR Value 10µ
SYMBOL cap 384 320 R0
SYMATTR InstName C1
SYMATTR Value 4.7µ
SYMBOL res -1296 96 R0
SYMATTR InstName R6
SYMATTR Value {Rshunt}
SYMBOL bi -928 112 R0
SYMATTR InstName B1
SYMATTR Value I={Is}*(exp(v(d2)/{n}/{VTH})-1)
SYMBOL current -1088 112 R0
SYMATTR InstName I1
SYMATTR Value {IL}
SYMBOL res -656 -16 R90
WINDOW 0 0 56 VBottom 2
WINDOW 3 32 56 VTop 2
SYMATTR InstName RS1
SYMATTR Value {RS}
SYMBOL cap -352 64 R0
SYMATTR InstName C4
SYMATTR Value 10µ
SYMBOL voltage -944 -240 R0
WINDOW 123 0 0 Left 0
WINDOW 39 0 0 Left 0
SYMATTR InstName V1
SYMATTR Value 2.2
TEXT -368 488 Left 2 !.tran 6ms startup
TEXT -232 -584 Left 2 !.param RS = 0.5
TEXT -232 -560 Left 2 !.param Rshunt=50k
TEXT -232 -536 Left 2 !.param Is=10n
TEXT -232 -512 Left 2 !.param n=1.2
TEXT -232 -488 Left 2 !.param VTH=0.026
TEXT -232 -464 Left 2 !.param IL=-400m
TEXT -216 -344 Left 2 !.ic V(d2)=0
TEXT -216 -368 Left 2 !.ic V(IN)=0
